# Name file for MODPATH-RW, generated by Flopy version 3.4.1.
MPBAS      ex06a_mf6.mpbas
GRBDIS     ex06_mf6.dis.grb
TDIS       ex06_mf6.tdis
HEAD       ex06_mf6.hds
BUDGET     ex06_mf6.bud
DSP        ex06a_mf6.dsp
RWOPTS     ex06a_mf6.rwopts
SRC        ex06a_mf6.src
OBS        ex06a_mf6.obs
