# File generated by Flopy version 3.4.1 on 06/30/2023 at 14:20:56.
BEGIN options
  TIME_UNITS  seconds
END options

BEGIN dimensions
  NPER  1
END dimensions

BEGIN perioddata
  6.30720000E+07  730       1.00000000
END perioddata

