# File generated by Flopy version 3.4.1 on 06/30/2023 at 14:20:56.
BEGIN options
  SAVE_FLOWS
END options

BEGIN packages
  DIS6  ex06_mf6.dis  dis
  IC6  ex06_mf6.ic  ic
  NPF6  ex06_mf6.npf  npf
  CHD6  ex06_mf6.chd  chd-1
  WEL6  ex06_mf6.wel  wel-1
  OC6  ex06_mf6.oc  oc
END packages

