# MPRWSIM package for MODPATH-RW generated by Flopy 3.4.1
ex06a_mf6.mpnam
ex06a_mf6.mplst
7 2 1 2 0 0 0 2 0 0
ex06a_mf6.mpend
0
1
6.3072e+07
1
1
1
0
