# File generated by Flopy version 3.4.1 on 06/30/2023 at 14:20:56.
BEGIN griddata
  strt
    CONSTANT     250.00000000
END griddata

