# File generated by Flopy version 3.4.1 on 06/30/2023 at 14:20:56.
BEGIN options
  auxiliary  CONCENTRATION
  SAVE_FLOWS
END options

BEGIN dimensions
  MAXBOUND  28
END dimensions

BEGIN period  1
  1 1 1     250.00000000       0.00000000
  1 18 1      20.00000000       0.00000000
  1 1 2     250.00000000       0.00000000
  1 18 2      22.50000000       0.00000000
  1 1 3     250.00000000       0.00000000
  1 18 3      25.00000000       0.00000000
  1 1 4     250.00000000       0.00000000
  1 18 4      27.50000000       0.00000000
  1 1 5     250.00000000       0.00000000
  1 18 5      30.00000000       0.00000000
  1 1 6     250.00000000       0.00000000
  1 18 6      32.50000000       0.00000000
  1 1 7     250.00000000       0.00000000
  1 18 7      35.00000000       0.00000000
  1 1 8     250.00000000       0.00000000
  1 18 8      37.50000000       0.00000000
  1 1 9     250.00000000       0.00000000
  1 18 9      40.00000000       0.00000000
  1 1 10     250.00000000       0.00000000
  1 18 10      42.50000000       0.00000000
  1 1 11     250.00000000       0.00000000
  1 18 11      45.00000000       0.00000000
  1 1 12     250.00000000       0.00000000
  1 18 12      47.50000000       0.00000000
  1 1 13     250.00000000       0.00000000
  1 18 13      50.00000000       0.00000000
  1 1 14     250.00000000       0.00000000
  1 18 14      52.50000000       0.00000000
END period  1

