# File generated by Flopy version 3.4.1 on 06/30/2023 at 14:20:56.
BEGIN options
  auxiliary  CONCENTRATION
  PRINT_INPUT
  PRINT_FLOWS
  SAVE_FLOWS
  TS6  FILEIN  ex06_mf6.wel.ts
END options

BEGIN dimensions
  MAXBOUND  2
END dimensions

BEGIN period  1
  1 4 7       0.00100000       0.00000000
  1 11 7      -0.01890000  CFLUX
END period  1

