# File generated by Flopy version 3.4.1 on 06/30/2023 at 14:20:56.
BEGIN options
  BUDGET  FILEOUT  ex06_mf6.bud
  HEAD  FILEOUT  ex06_mf6.hds
  HEAD  PRINT_FORMAT  COLUMNS  10  WIDTH  15  DIGITS  6  GENERAL
END options

BEGIN period  1
  SAVE  HEAD  ALL
  SAVE  BUDGET  ALL
  PRINT  HEAD  ALL
  PRINT  BUDGET  ALL
END period  1

