# File generated by Flopy version 3.4.1 on 06/30/2023 at 17:39:28.
BEGIN options
  SAVE_SPECIFIC_DISCHARGE
END options

BEGIN griddata
  icelltype
    CONSTANT  0
  k
    INTERNAL  FACTOR  1.0
         0.26581749       0.66071945       0.69372296       0.90332526       0.33926597       0.53625059       1.73819685       2.70310736       1.51120853       1.51125860       0.92279011       1.42244065       1.17012966       0.68338376       0.40620786       0.20609684       0.23588338       0.40169480       0.39261931       1.57632720       1.95957386       2.74011874       2.43244219       1.72802234       2.92084002       4.13129711       2.42738986       4.59802389       1.81828153       0.98309839       1.02758062       1.36607456       0.53472233       1.06634963       1.06387472       0.38372940       1.44331765       1.29194558       0.52827507       0.91691941       0.30362591       0.23421839       0.30202475       0.42239517       0.29557332       0.38766474       0.66186756       0.24214621       0.71772695       1.35391009       0.35964268       0.35919428       0.42307365       0.80065095       1.33311176       0.53287733       0.67928362       0.90487188       0.75001675       0.82221925       1.23515618       2.94459558       1.58790684       0.16332699       0.06124577       0.16392463       0.43119997       1.72317672       2.36947346       2.28299642       2.39194202       2.26044679       1.35332799       0.50992382       1.85667670       1.76135051       2.87811399       3.32688713       5.43535852       6.81605721      12.66069698       6.05242252       2.73437572       1.74780130       2.06015515       1.04440713       1.53125620       1.09414840       1.28923965       0.80886692       2.36994171       1.20516181       1.89703107       4.86233282       2.90644836       1.44916463       0.40084532       0.47845718       0.21629749       0.50979400       0.83001471       0.62507951       0.57744765       3.32646632       5.19980907       7.67968178       2.95353937       3.97208929      10.44171906       4.74136162       8.35282516       8.41220379       5.89106607       6.04286003       3.50209332       3.26045942       1.03569353       1.10846484       2.82924056       2.82688379       1.52081573       2.34319997       2.07824755       3.99048305       1.53373027       1.43909943       1.46888387       0.45597517       0.50410700       0.35228291       1.10940540       2.08033180       2.83375287       1.56286383       4.59094810       1.35818982       1.30789495       2.80712581       3.43549013       3.02861786       1.47908247       1.80586982       1.19644535       1.09022653       1.09060323       1.52598250       1.20364225       0.69258857       0.90312588       0.28713626       0.66058367       0.92241472       0.60538352       0.30667761       0.16142204       0.29970807       0.35712561       1.47641420       1.10750818       0.95064574       0.50984555       0.43579707       0.27470627       0.41704437       0.28084561       0.28331608       0.35831165       0.44487280       0.46134529       0.44600743       0.51621240       0.26128423       0.53005558       0.69198328       0.74801999       0.19471048       0.41528484       0.82702005       0.56862569       1.36923397       1.63410783       3.13310647       2.82555270       1.94400811       3.28575611       3.27588892       2.08746862       1.68895972       1.25907826       3.33101892       3.34596777       5.68229532       3.53447437       1.20126951       0.72752440       0.64053118       1.29579163       1.75574517       3.09767962       3.25953674       3.48673368       1.12022889       3.09080577       0.71926630       0.37785020       1.23177838       0.74465096       0.38285673       0.34935579       0.68377286       0.75028002       1.79346907       4.47389221       2.97634625       4.32648706       2.78026938       1.60551846       2.63137555       1.18215406       1.31929529       0.27393982       0.16853441       0.51559162       0.17674649       0.11648221       0.25071156       0.12122862       0.11702493       0.18412311       0.11957999       0.08434115       0.06205875       0.06932413       0.03057184       0.03192440       0.03926781       0.02660158       0.02468741       0.09347771       0.12776235       0.09755475       0.09992453       0.05149289       0.04132861       0.07030878       0.13651109       0.52240169       0.21212992       0.11804144       0.23379551
         0.20992936       0.38174450       0.67984021       1.21609557       0.33885318       0.94662648       1.60298693       0.90633100       1.05843115       1.06100738       0.78500056       1.09552205       0.77696556       0.71534097       0.65212685       0.36686555       0.37926883       0.32335201       0.63511068       1.44847286       2.39521194       2.29126334       3.10094857       1.83106220       3.25757885       1.88303328       4.20999193       1.59749138       1.72496760       1.11023068       1.33827531       0.67277408       0.28162956       0.24095345       0.31326044       0.63961226       0.54363692       1.62071204       2.11819983       0.85551035       0.98625875       0.39053836       0.34372264       0.29614919       0.30414680       0.66380322       0.31229708       0.20202067       0.88072979       0.89055067       0.71162611       0.64658868       0.19678727       0.90381086       2.52952218       0.99974495       0.68379343       3.91206694       1.21607053       1.32820117       1.37387037       1.47576535       2.98444200       0.47839665       0.19122621       0.07969460       0.17065549       1.17707908       2.86775279       1.87997818       2.30541778       1.35203183       2.08001614       1.00258899       1.91106331       1.62354100       1.54527056       3.87710309       6.21338320       8.33580589       4.97022200       2.37324953       4.53233910       3.02221751       3.78691983       5.16751671       1.85408044       1.38530040       2.39621949       1.62976515       1.69251239       2.05070448       1.76089942       2.38565326       2.09856820       1.29662156       1.20468569       0.68639857       0.58588755       0.52184039       0.87139720       0.82643962       0.48276052       1.00289154       1.74523580       4.12250710       4.49114323       5.40117550       5.66077423      14.07376385       5.43071938       3.50273538       4.93888760       2.40120292       1.13714492       1.87720692       1.32316637       1.08823621       1.16966009       1.13728321       2.45677757       3.80143166       3.25372863       7.39617348       1.40349579       2.32216239       1.78210282       0.43004522       1.06141818       1.07570469       0.79127496       1.17021310       1.16975069       1.67652905       3.40686369       3.50926018       3.49507380       2.01664305       1.91834116       2.42888713       3.89603043       1.68334222       1.33547676       1.67759514       1.11850655       0.36250347       0.77433974       0.96641350       1.01236224       0.50385278       0.98298812       0.19358695       0.10048542       0.23513675       0.06441515       0.10245393       0.22231503       0.43518215       0.61824220       0.54283470       0.48432940       0.23623347       0.19073099       0.13007998       0.16259268       0.21427180       0.21920884       0.30636260       0.26082355       0.72237325       0.94253671       0.63115340       0.55641347       0.83597314       2.40298820       1.28340042       1.75740337       1.18388236       0.66225904       0.58808166       0.47389010       1.42217064       2.35306478       2.27407980       5.55789471       8.00766563       3.70703673       4.35555553       4.65567112       3.92069864       4.89356899       7.46384192       8.41193676       0.76909053       1.13906801       1.07326090       1.06889415       1.32002771       1.46001339       0.93121266       1.11546540       0.44604272       0.86419827       1.41644382       1.30641711       0.87186396       0.61444455       0.86669040       0.59593588       0.60778326       1.77338636       3.78520751       9.01129341       8.40249825       3.87623835       3.36972117       1.86287248       1.38871503       1.52501988       1.39587176       0.34244138       0.19886732       0.12795441       0.10253982       0.07550554       0.14097714       0.05978381       0.14623994       0.23367944       0.17018931       0.09553828       0.03863838       0.11060399       0.10683965       0.04883717       0.03691252       0.06639960       0.04222829       0.13587368       0.12120751       0.07917964       0.16772893       0.07650054       0.17967121       0.09463321       0.05039744       0.24807708       0.74741352       0.29380602       0.26055771
         0.09009517       0.40243927       0.70394135       0.61397934       0.58094329       0.45757347       0.55176330       0.42653406       0.43224370       0.98670584       1.02668357       0.84126103       0.62390739       0.92746508       0.87128896       0.35301611       0.31266665       0.60741043       0.14974979       0.37405071       0.55976576       1.32671523       2.02076697       2.93179703       4.20691776       2.49952149       2.57879400       3.28670144       2.01239085       1.15529191       1.04352915       1.16766810       0.42490175       0.23494239       0.23749484       0.43968827       0.98698539       1.24562323       3.74747014       1.12412965       0.63067061       0.56969112       0.60692471       0.40436935       0.57349330       0.24212056       0.21705633       0.68431693       0.78747076       0.74902129       0.83384508       0.86023641       0.54486406       0.91450632       1.39271033       1.60078847       1.28419220       2.02993202       2.71413493       3.78474665       1.92552781       1.51607645       1.02087367       0.45630765       0.28932330       0.10675860       0.20043302       0.48921430       1.38982868       1.44274497       0.67511952       1.66995192       2.07454085       1.63634670       1.70976424       1.14451528       1.11896372       2.98468256       4.62754822       2.97506166       4.48118401       6.19357061       5.18708038       4.44073296       3.47251153       2.66654491       1.93867016       2.13972306       1.48845470       0.87958574       0.49564549       1.25232959       2.57816219       2.81903720       0.71388227       0.94116545       1.80593550       0.64287293       0.76179385       1.07956517       0.91206467       1.80453396       2.00817299       2.39560223       2.65332651       4.08045244       7.65531349       5.10926390       5.20811892       9.69618797       4.87079763       2.06616068       1.97119319       2.39556050       1.33129811       0.56114107       1.34037399       1.56396878       0.93525726       0.46691737       1.32099235       5.49272299       8.56100845       3.10770726       1.37260222       4.06947422       1.62696147       1.19667804       2.46482372      11.00587749       3.94382191       1.45084977       1.85274434       3.20110750       1.61890650       2.44680285       0.99681658       0.89333481       1.19105458       1.36089408       2.04156160       1.09194839       2.67324829       0.68096018       1.40759826       1.43112600       0.73457062       0.49980697       0.69162774       0.49170902       0.46489158       0.12962620       0.17825639       0.10496763       0.06157786       0.30589017       0.28706452       0.86752260       0.99336886       0.18496051       0.18239039       0.32161227       0.47913545       0.30761784       0.30576348       0.58724630       0.58371007       0.45457289       0.54294968       0.95276475       2.38537049       0.58392787       0.90582603       2.12885690       1.51052523       1.06055593       2.06870055       0.31694323       0.73766661       0.61385995       0.69546807       1.97413754       1.19206452       1.99215782       3.80334353       9.59477139       6.40166092       3.67494488       3.16155624       3.33582592      10.03480339       2.66600513       4.24582291       3.05318236       1.64204621       1.00998580       0.78887779       0.88304418       0.47623590       1.10408533       0.30905554       0.34888324       0.36710057       1.35142696       2.54604197       1.10052037       1.04590309       1.03221726       0.63942522       2.04806018       2.16303062       3.20162892       7.58555222      17.64434242      12.85231018       5.55798292       1.22481978       0.61450088       2.27073503       1.17107832       0.39553162       0.19773543       0.09707929       0.04958646       0.11298312       0.17502506       0.29726338       0.28906766       0.18729427       0.12206912       0.05453653       0.15161522       0.22420961       0.26136106       0.17525767       0.06531046       0.10498756       0.03590687       0.08795711       0.20759508       0.11406727       0.06636286       0.05581279       0.10520026       0.07837997       0.03639384       0.13495514       0.41211045       0.48138621       0.22160926
         0.11895764       0.77608764       0.49668255       0.30501747       0.64344960       0.67419356       1.17881298       0.59264618       1.46376240       0.78970641       0.38673717       0.74791116       0.80502015       0.30670279       0.54480976       0.39545411       0.36248282       0.21196094       0.08975393       0.24992827       0.32133016       0.53075582       0.72816539       1.14973223       6.73496056       3.29334450       3.22123384       4.80853176       4.58591318       1.74593699       0.91223681       0.76065409       0.16012305       0.14738898       0.26778373       0.35536370       0.91871005       1.10184348       2.01882529       1.54045236       0.82279408       1.03821182       1.08381891       0.41886234       0.37090519       0.24599636       0.39552662       0.68110877       0.50678343       0.63942218       1.81664634       0.81178308       0.93665385       0.71137631       0.91179365       1.22327149       0.55237508       0.78620303       0.41352817       1.35566878       2.47086024       1.03129542       0.53333086       0.20747072       0.14221522       0.10961685       0.24829485       0.26799083       1.03016174       1.11057544       0.39143911       1.15516305       3.72555184       2.05941248       0.85514879       2.10449600       1.94135427       3.58551002       3.68992615       8.10383129       2.45337319       2.55180955       3.77859402       8.05388355       3.66647124       4.17030048       2.09307384       3.25983071       2.67175722       1.57182491       0.63786912       1.27861238       3.12405872       1.89656031       1.56992972       1.37789941       1.04196250       0.91612083       0.56093621       0.56479329       1.64261758      14.05797672       7.86574125       6.36904955       5.37196302       5.81269646       3.54623556       6.78433895       5.06526566       2.81874728       2.93150473       1.82598269       1.60767007       2.67735195       2.07958508       1.99784839       1.00441051       1.74417114       1.69162166       3.04400921       1.87110853       2.25464988       2.11205649       2.67796135       5.12544680       2.33687305       1.82025492       0.59492952       2.26659536       3.40794683       1.52147710       1.36283410       1.69098783       0.92590213       0.42410299       1.17362249       0.66065991       1.93906879       1.67465079       3.56958175       1.56862211       0.71843314       1.01034868       0.55127054       0.42734820       1.58381951       1.29422522       0.39580566       0.75521100       0.72503132       1.08748996       0.30420014       0.26210636       0.14689808       0.14515488       0.38831988       0.44230163       1.35487378       0.62388182       0.68304676       0.27956480       0.55266339       0.24742173       0.33561766       0.17261757       0.26159424       0.40153989       0.65092260       0.68624127       0.80450988       5.31560659       1.39835238       0.90745938       4.52115202       2.22076607       2.02094579       2.01128364       0.84231657       0.85011965       0.83274621       1.24672866       1.43067348       2.35348153       2.04717326       6.75234079      13.31797886      12.55861950       2.61660147       5.64218807       5.88873720       6.22518301       5.04153538       4.96998549       2.74824166       1.16689515       1.18531144       1.88886023       1.38917184       0.86432183       0.78466308       0.30394581       0.25046510       0.62491637       0.82353729       0.84150314       2.18304110       1.64352942       0.94763905       0.44395867       1.11873710       2.09747672       2.29052091       4.75595093      10.67121506       5.69785976       4.35878611       1.45443523       0.95601922       1.08842814       0.94688714       0.27911165       0.15661012       0.18608990       0.09354425       0.10085630       0.10497428       0.24557318       0.53475362       0.11838348       0.07825366       0.03352234       0.07901206       0.14241996       0.10530511       0.14762920       0.11416470       0.09057508       0.06856323       0.05668435       0.05911457       0.12656604       0.15902805       0.12641802       0.06297904       0.17489505       0.04784963       0.05855363       0.81046337       0.56030768       0.24050924
         0.16178232       0.33113670       0.25274178       0.12178575       0.35440755       0.63786817       0.41745275       0.31721699       0.91773725       0.74279642       0.58408672       1.92164719       2.68114758       0.60319555       0.81433874       0.69398075       0.88797337       0.35692695       0.21345182       0.24205434       0.13367668       0.72273993       0.70930642       0.80269545       2.97836566       6.22252607       4.81402445       3.34456134       4.50035524       2.41135383       4.06598186       2.61689949       0.58097172       0.28643250       0.18200435       0.42077273       0.64843357       1.30729532       2.14695168       2.39198375       1.56886530       0.87487638       0.20920470       0.19426459       0.10526849       0.15718068       0.15632313       0.44208971       0.41474345       0.54753780       2.30636215       1.48942733       1.17320871       2.65553427       0.87189263       0.77425414       0.32047874       0.19841187       0.21909966       0.28605914       1.11373949       0.33344212       0.22688279       0.14785814       0.09610794       0.03832744       0.35965237       0.25806323       0.49123350       0.54181343       0.42012054       0.80091935       0.69495910       1.24160206       0.83002514       3.59890318       2.95788097       2.68303442       1.35418642       0.76620179       1.70575452       1.11171913       2.34885335       1.98870206       3.16288090       1.58774626       1.89934206       2.22875452       1.61223400       1.01538444       2.53923178       5.11945295       7.96221542       2.85554028       4.73894072       1.09990621       0.82508045       1.20833111       0.71852517       0.81699938       1.81332326       7.32749748       3.48349357       6.27965450       4.33813906       5.30016470      16.88210297       8.34728146       4.00404596       4.13341427       0.66082704       1.40361118       4.00502777       3.89512420       7.00917387       3.59755516       2.30349040       1.99091709       3.01413345       5.63612461       0.95019490       2.79228282       1.59651172       1.11803949       3.27609158       3.52875113       1.09637213       0.73813093       2.16148210       2.38550615       0.83802706       1.88058460       1.09648156       0.44382459       0.42126134       0.74839735       2.37484837       4.76468182       5.15348148       3.44382143       1.61954904       0.41719601       1.37560058       1.42668414       0.89494652       0.46773759       0.66543412       0.59494269       0.68990105       1.97746456       1.12413239       0.38685462       0.72349447       0.57901382       0.47899842       0.45471093       0.86800337       1.64859951       1.39340866       0.94733697       0.52777159       1.23350704       0.17420509       0.30816162       0.73528761       0.21969773       0.46023569       0.95241082       0.80436116       2.52143216       2.78216457       1.18326867       1.85653877       1.98949158       4.04287720       3.42891836       1.84354818       0.76655930       0.78283894       1.56024659       0.57299298       1.90215814       7.70339584       4.84149742       6.32029676       9.05356789      10.01720715       4.01771975       2.57806063       4.06726742       3.17212105       2.97164822       3.30092430       3.10043383       1.71013188       1.40632582       0.59259558       0.63046426       0.75780541       0.27177754       0.43484035       0.62452918       0.33116812       1.48710239       0.78752178       1.18690383       1.64699960       1.16624367       1.04335356       1.35884273       0.95567799       0.60038382       3.68380547       4.66286850       4.00511026       2.00599575       0.60237491       0.63445026       0.55216813       1.70021844       0.18685058       0.16277531       0.20357580       0.28763247       0.58076417       0.28500724       0.25084874       0.60427040       0.18238461       0.07752459       0.06312659       0.04260788       0.09131998       0.06423616       0.10424485       0.10261442       0.10684472       0.07500815       0.13268068       0.11578628       0.11826751       0.06728312       0.07524453       0.12462788       0.15268819       0.10050291       0.31478873       0.70700884       0.77458227       0.20315140
         0.09196913       0.22209720       0.18415517       0.12778255       0.38480121       0.29077986       0.45234674       0.25068659       0.61614996       0.86731106       0.80774611       0.80489928       0.27398011       0.19271959       0.40506750       0.63881987       0.62185395       0.35933635       0.25609711       0.20208779       0.08245035       0.16094036       0.77332789       0.97809547       2.72854090       5.93810511       5.71672058       7.46313238       3.02206445       4.78215361       5.15992308       3.02266192       1.47100830       0.41097233       0.55071908       0.52266449       1.65011728       2.42537570       1.93653178       2.52006102       0.75611544       0.49683416       0.43023294       0.15065937       0.27961606       0.19551256       0.26077613       0.27878478       0.40886208       1.24098778       2.75001502       0.90604156       1.30758679       1.41073322       1.44098949       0.57845384       0.20283367       0.14293204       0.20914584       0.84959418       0.80455190       0.44290209       0.36180204       0.22611533       0.05023038       0.03327678       0.19860332       0.46343628       0.48124236       0.44909063       0.31529284       1.02390063       0.65970474       0.42248404       0.44371510       1.13695943       2.00368834       1.42444146       0.50643343       0.80915475       0.55758572       0.43231550       0.93060207       1.23251474       1.56791806       1.38957155       1.22009003       2.11854482       2.91249371       1.66208124       3.16153097       7.25727892      13.85035992      13.22439194       3.30047035       1.67113030       1.20055938       3.55826616       2.26910925       0.90031767       2.54124403       4.37159634       2.46886849       4.29870033       6.30233240       4.72081327       4.56782913       5.61877394       2.63566017       4.18302631       0.73167616       0.84410846       1.94125903       2.68099475       2.49815416       2.08914924       1.06309998       2.73133397       2.20084834       1.63248610       0.86706305       0.93666953       0.92557794       0.81479722       1.03845024       0.94621241       0.30833706       1.24953282       5.60395622       0.99498284       0.51241314       1.70979404       1.18499672       0.92528754       0.51447272       1.82617891       3.18943214       6.36441946      10.77838421       7.37713766       4.38657284       0.70721561       2.12996793       4.85021591       1.69863558       0.93397063       0.97401607       0.61500442       0.89284039       1.15406382       1.17398250       0.73700088       0.59471697       0.97352535       0.28059348       0.37797388       0.99731940       1.05584407       0.75046867       0.63292933       0.56457365       0.59106654       0.16772363       0.17184415       0.32674140       0.82972598       0.76446170       0.71834683       0.54881012       2.44580126       1.78137589       1.45303988       1.85503948       3.87875247       7.66900301       5.05814314       1.79796088       0.83178031       1.61415994       1.04956198       1.69723427       1.70556831       1.26112843       2.39123869       6.07870102      10.83339977      13.93426991       5.69506741       1.99474895       2.26148701       1.00293946       1.82178378       2.25494599       3.38699055       1.24262524       0.19416630       0.23382840       0.42050999       0.19635214       0.34551591       0.53084052       0.56213301       0.38254631       0.78018963       0.40851241       0.98536205       1.01771629       2.44537973       3.02541614       1.77994835       0.46561104       0.36181402       1.48235786       6.14732504       2.55732274       0.87801337       0.90843433       0.37474564       0.76914531       0.43841785       0.30526835       0.07150613       0.17914924       0.27821058       0.19945303       0.20941252       0.12368169       0.13396233       0.14199051       0.18676491       0.04345082       0.01958847       0.02970556       0.04424251       0.04991054       0.07954481       0.10138392       0.14432189       0.31040326       0.14570677       0.09938254       0.09771992       0.05493464       0.09127379       0.10736803       0.13129288       0.42314586       0.55492425       0.34749538       0.09219480
         0.12125162       0.10004628       0.25506380       0.12592925       0.06435205       0.15326144       0.42617267       0.28737697       0.49442208       0.17153740       0.23028333       0.20751761       0.27924582       0.23205680       0.54533464       0.51336354       0.71946764       2.56873870       1.45691168       0.21116343       0.30617905       0.50933075       1.49246359       2.83356929       2.17223644       4.89318275       6.73922062       3.23874092       3.04856086       7.65289307       5.90160084       4.56095886       0.64397073       0.35840008       0.75253028       0.88319600       1.42152548       1.52295959       1.33992279       1.03312421       3.06883931       1.30987334       1.00199747       0.32893249       0.54226422       0.39985272       0.70132613       0.39739907       1.08776879       2.68015981       2.53357315       1.35293210       1.39948046       0.97343147       1.27615845       0.67718929       0.34788018       0.23651341       0.23551218       0.26447761       0.24970470       0.21861315       0.16597456       0.18934581       0.10137112       0.15476879       0.38316616       0.15630335       0.33496824       0.33676690       0.96926522       1.32568133       0.54612070       0.85425836       1.27399111       1.14102149       0.62305564       0.46381307       0.50699419       0.38167933       0.62545019       1.17296755       1.89575970       1.44799197       0.84040219       1.11085582       1.70011091       2.76354027       2.37214255       3.96940851      10.09607506      11.45850945      17.17639160      26.21087837       5.99773979       4.19274044       2.97770643       4.14758825       1.96579933       1.92117000       3.08975053       6.79625607       5.05462551       8.93100929       5.26025772       4.36580086       3.55958843       5.57047606       3.16598821       1.06549370       0.73598552       1.04362166       1.56431007       2.79644942       1.50155270       1.32097137       1.82339740       2.42455506       1.89668620       1.43942273       1.25959384       1.55211473       1.19949293       3.42670155       1.94364250       0.67063195       1.21617246       1.38116241       0.97543967       0.80165035       0.73431623       1.92127049       1.81880772       1.52564478       0.90194952       2.09991574       2.02459192       6.56131792       7.40951681       5.84125853       2.65032411       0.66937661       1.43371701       2.02428150       0.79672480       0.83501267       1.41030276       1.47132921       1.49554873       1.42324829       0.89825356       1.46289253       1.11564600       0.41150424       0.20794097       0.60672039       2.10598063       2.34666681       2.46578646       1.79534149       2.82433748       2.07094240       0.49238747       0.13202146       0.41137868       0.52194595       0.37920946       1.78146875       1.97085977       0.95869052       1.63691616       0.99881786       3.40337491       4.23774147       5.47884464       3.83639836       3.47192931       1.75519824       3.39154053       3.77364397       3.53502250       1.29973948       0.90257770       0.75427896       5.57479286       3.52100396       6.79561043       7.40272570       1.81491530       0.61546355       1.06227624       0.93039888       0.93394512       1.40104151       1.26234722       0.50513148       0.45283619       0.36286247       0.19525307       0.11027920       0.37110576       0.49041316       1.19420183       0.49482873       0.17377594       0.59178382       2.09325933       1.53890669       1.49502373       0.38016936       0.52852076       0.45884931       1.38536179       3.26849055       5.00120258       1.11047471       0.57416195       0.44261077       0.68735754       0.41769308       0.15517800       0.09065677       0.22561750       0.26811120       0.14806402       0.13061374       0.09676512       0.05494421       0.09054931       0.09868883       0.07311010       0.04338355       0.04133319       0.05000296       0.03019854       0.07396236       0.10097917       0.19145916       0.18287553       0.11850524       0.08822314       0.37247843       0.03756430       0.06610942       0.03071622       0.14744492       0.36684057       0.69471085       0.49483112       0.14214778