# # MPRWBAS package for MODPATH-RW generated by Flopy 3.4.1
0                   # DEFAULTIFACECOUNT
CONSTANT    3.500000E-01                           #porosity layer 1              
