# File generated by Flopy version 3.4.1 on 06/30/2023 at 17:39:28.
BEGIN options
  SAVE_FLOWS
  NEWTON  UNDER_RELAXATION
END options

BEGIN packages
  DIS6  ex07_mf6.dis  dis
  NPF6  ex07_mf6.npf  npf
  CHD6  ex07_mf6.chd  chd_0
  IC6  ex07_mf6.ic  ic
  OC6  ex07_mf6.oc  oc
END packages

