# MPRWSIM package for MODPATH-RW generated by Flopy 3.4.1
ex07a_mf6.mpnam
ex07a_mf6.mplst
5 1 2 2 0 0 2 0 0 0
ex07a_mf6.mpend
ex07a_mf6.timeseries
0
1
0
3
20
2
1
   2.000000E+01
1
1
0
