# File generated by Flopy version 3.4.1 on 06/30/2023 at 17:39:28.
BEGIN options
END options

BEGIN dimensions
  MAXBOUND  100
END dimensions

BEGIN period  1
  1 1 1     260.00000000
  1 1 250      10.00000000
  1 2 1     260.00000000
  1 2 250      10.00000000
  1 3 1     260.00000000
  1 3 250      10.00000000
  1 4 1     260.00000000
  1 4 250      10.00000000
  1 5 1     260.00000000
  1 5 250      10.00000000
  1 6 1     260.00000000
  1 6 250      10.00000000
  1 7 1     260.00000000
  1 7 250      10.00000000
  1 8 1     260.00000000
  1 8 250      10.00000000
  1 9 1     260.00000000
  1 9 250      10.00000000
  1 10 1     260.00000000
  1 10 250      10.00000000
  1 11 1     260.00000000
  1 11 250      10.00000000
  1 12 1     260.00000000
  1 12 250      10.00000000
  1 13 1     260.00000000
  1 13 250      10.00000000
  1 14 1     260.00000000
  1 14 250      10.00000000
  1 15 1     260.00000000
  1 15 250      10.00000000
  1 16 1     260.00000000
  1 16 250      10.00000000
  1 17 1     260.00000000
  1 17 250      10.00000000
  1 18 1     260.00000000
  1 18 250      10.00000000
  1 19 1     260.00000000
  1 19 250      10.00000000
  1 20 1     260.00000000
  1 20 250      10.00000000
  1 21 1     260.00000000
  1 21 250      10.00000000
  1 22 1     260.00000000
  1 22 250      10.00000000
  1 23 1     260.00000000
  1 23 250      10.00000000
  1 24 1     260.00000000
  1 24 250      10.00000000
  1 25 1     260.00000000
  1 25 250      10.00000000
  1 26 1     260.00000000
  1 26 250      10.00000000
  1 27 1     260.00000000
  1 27 250      10.00000000
  1 28 1     260.00000000
  1 28 250      10.00000000
  1 29 1     260.00000000
  1 29 250      10.00000000
  1 30 1     260.00000000
  1 30 250      10.00000000
  1 31 1     260.00000000
  1 31 250      10.00000000
  1 32 1     260.00000000
  1 32 250      10.00000000
  1 33 1     260.00000000
  1 33 250      10.00000000
  1 34 1     260.00000000
  1 34 250      10.00000000
  1 35 1     260.00000000
  1 35 250      10.00000000
  1 36 1     260.00000000
  1 36 250      10.00000000
  1 37 1     260.00000000
  1 37 250      10.00000000
  1 38 1     260.00000000
  1 38 250      10.00000000
  1 39 1     260.00000000
  1 39 250      10.00000000
  1 40 1     260.00000000
  1 40 250      10.00000000
  1 41 1     260.00000000
  1 41 250      10.00000000
  1 42 1     260.00000000
  1 42 250      10.00000000
  1 43 1     260.00000000
  1 43 250      10.00000000
  1 44 1     260.00000000
  1 44 250      10.00000000
  1 45 1     260.00000000
  1 45 250      10.00000000
  1 46 1     260.00000000
  1 46 250      10.00000000
  1 47 1     260.00000000
  1 47 250      10.00000000
  1 48 1     260.00000000
  1 48 250      10.00000000
  1 49 1     260.00000000
  1 49 250      10.00000000
  1 50 1     260.00000000
  1 50 250      10.00000000
END period  1

