# File generated by Flopy version 3.4.1 on 06/30/2023 at 17:39:28.
BEGIN options
END options

BEGIN dimensions
  NPER  1
END dimensions

BEGIN perioddata
     100.00000000  1       1.00000000
END perioddata

