# Name file for MODPATH-RW, generated by Flopy version 3.4.1.
MPBAS      ex07a_mf6.mpbas
GRBDIS     ex07_mf6.dis.grb
TDIS       ex07_mf6.tdis
HEAD       ex07_mf6.hds
BUDGET     ex07_mf6.bud
DSP        ex07a_mf6.dsp
RWOPTS     ex07a_mf6.rwopts
GPKDE      ex07a_mf6.gpkde
IC         ex07a_mf6.ic
