# File generated by Flopy version 3.4.1 on 06/30/2023 at 17:39:28.
BEGIN options
  BUDGET  FILEOUT  ex07_mf6.bud
  HEAD  FILEOUT  ex07_mf6.hds
END options

BEGIN period  1
  SAVE  HEAD  ALL
  SAVE  BUDGET  ALL
END period  1

