# File generated by Flopy version 3.4.1 on 06/30/2023 at 17:39:28.
BEGIN options
END options

BEGIN timing
  TDIS6  ex07_mf6.tdis
END timing

BEGIN models
  gwf6  ex07_mf6.nam  ex07_mf6
END models

BEGIN exchanges
END exchanges

BEGIN solutiongroup  1
  ims6  ex07_mf6.ims  ex07_mf6
END solutiongroup  1

