BEGIN griddata
  strt
    INTERNAL  FACTOR  1.0
       250.00000000     250.00000000     250.00000000     250.00000000     250.00000000     250.00000000     250.00000000     250.00000000     250.00000000     250.00000000     250.00000000     250.00000000     250.00000000     250.00000000
       242.72550950     243.33011708     244.04489454     244.50972967     244.54925994     244.09246331     243.12695707     241.71809646     240.13424459     238.78978771     237.82422716     237.20386957     236.84779854     236.68783276
       234.84641143     236.55006424     238.33973142     239.44476418     239.59484680     238.69363623     236.69726854     233.61118419     230.02909422     227.20067909     225.30325134     224.14345258     223.49949182     223.21569975
       225.26366057     229.68399705     233.31920274     235.33474883     235.69172684     234.38996629     231.35729667     226.00027755     219.17026899     214.68058309     212.04464654     210.56719761     209.79101637     209.45977471
       211.26057324     223.60306064     229.91833364     232.88330155     233.44734544     231.81720540     227.66324823     219.86236032     205.97112109     200.30673774     197.62755411     196.28967495     195.63760134     195.37260798
       184.91499850     196.71520011     204.61103819     207.59642055     208.32349649     207.32085302     204.08084896     196.05563535     184.54511732     182.94769268     181.86915721     181.32634676     181.09710601     181.02044791
       158.54584692     158.67418936     158.95746699     159.33148817     159.85571559     160.61445268     161.74837763     163.46257566     164.69354012     165.06975845     165.57503527     166.04944885     166.40402804     166.59162976
       132.17643892     120.60632961     113.21315218     110.91634951     111.15342500     113.53286444     118.83563317     130.12424459     144.46820409     147.06276572     149.31177657     150.89238533     151.87792754     152.35041334
       105.83014802      93.68354178      87.76738702      85.41636664      85.70567542      88.50540321      94.36189029     104.74440040     121.67696565     129.40132381     133.71691994     136.33038839     137.86488346     138.58168272
        91.63046337      87.39929852      84.15141196      82.72508846      83.14441177      85.39863897      89.78696869      98.14363630     108.09393429     115.14864389     119.82419099     122.84736483     124.66953518     125.52975136
        81.66194356      80.13177698      78.71387383      78.18816344      78.74824423      80.15777223      81.24370920      89.94924179      97.40649134     103.27512649     107.58383532     110.56534477     112.43614108     113.33803618
        73.22359035      72.75199199      72.38414295      72.56544724      73.50262949      75.24049654      77.90310647      83.00313028      88.30766283      92.96153539      96.67067904      99.39403785     101.17164818     102.04821607
        65.25683547      65.26845773      65.50525873      66.18685310      67.45632992      69.39847798      72.12508986      75.85251003      79.85949431      83.59267321      86.74330759      89.16847939      90.80819770      91.63496385
        57.27845833      57.55974473      58.18158114      59.22037648      60.73735916      62.77199556      65.34626498      68.42232567      71.68513117      74.80635554      77.54139873      79.72837440      81.25769939      82.04847781
        49.01879482      49.51048173      50.44094459      51.77571255      53.50073467      55.60588012      58.06564882      60.80539650      63.65234913      66.40621903      68.88755741      70.94592010      72.44574762      73.25277024
        40.26744436      41.02244278      42.29600297      43.94079443      45.88398684      48.08514143      50.50505367      53.08126239      55.71264983      58.27861406      60.65669178      62.72200097      64.32660076      65.26408528
        30.76109547      32.01584209      33.77983011      35.80747534      38.00927681      40.34564507      42.78816207      45.30194955      47.83837375      50.33889562      52.73859465      54.95879121      56.87456920      58.21288482
        20.00000000      22.50000000      25.00000000      27.50000000      30.00000000      32.50000000      35.00000000      37.50000000      40.00000000      42.50000000      45.00000000      47.50000000      50.00000000      52.50000000
END griddata

