BEGIN options
  BUDGET  FILEOUT  gwf-p09-mf6.bud
  HEAD  FILEOUT  gwf-p09-mf6.hds
  HEAD  PRINT_FORMAT  COLUMNS  10  WIDTH  15  DIGITS  6  GENERAL
END options

BEGIN period  1
  SAVE  HEAD  ALL
  SAVE  BUDGET  ALL
END period  1

BEGIN period  2
  SAVE  HEAD    ALL
  SAVE  BUDGET  ALL
END period  2

