# File generated by Flopy version 3.3.6 on 01/29/2023 at 21:15:55.
BEGIN options
END options

BEGIN dimensions
  NPER  2
END dimensions

BEGIN perioddata
  3.15360000E+07  1       1.00000000
  3.15360000E+07  1       1.00000000
END perioddata
