# File generated by Flopy version 3.4.0 on 06/29/2023 at 12:20:51.
BEGIN options
  TIME_UNITS  seconds
END options

BEGIN dimensions
  NPER  2
END dimensions

BEGIN perioddata
  3.15360000E+07  1       1.00000000
  3.15360000E+07  1       1.00000000
END perioddata

