# File generated by Flopy version 3.4.0 on 06/29/2023 at 12:20:51.
BEGIN griddata
  strt
    CONSTANT     250.00000000
END griddata

