# MPRWSIM package for MODPATH-RW generated by Flopy 3.4.0
ex05a_mf6.mpnam
ex05a_mf6.mplst
7 1 2 1 0 0 0 0 0 0
ex05a_mf6.mpend
0
1
0
1
1
1
0
