# # MPRWBAS package for MODPATH-RW generated by Flopy 3.4.0
0                   # DEFAULTIFACECOUNT
CONSTANT    3.000000E-01                           #porosity layer 1              
