# File generated by Flopy version 3.4.0 on 06/30/2023 at 13:07:00.
BEGIN options
  PRINT_OPTION  summary
END options

BEGIN nonlinear
  OUTER_DVCLOSE  1.00000000E-06
  OUTER_MAXIMUM  100
  UNDER_RELAXATION  none
END nonlinear

BEGIN linear
  INNER_MAXIMUM  300
  INNER_DVCLOSE  1.00000000E-06
  inner_rclose  1.00000000E-06
  LINEAR_ACCELERATION  cg
  RELAXATION_FACTOR       1.00000000
  SCALING_METHOD  none
  REORDERING_METHOD  none
END linear

