# File generated by Flopy version 3.4.0 on 06/30/2023 at 13:07:00.
BEGIN options
  TIME_UNITS  seconds
END options

BEGIN dimensions
  NPER  2
END dimensions

BEGIN perioddata
  3.15360000E+07  1       1.00000000
  3.15360000E+07  1       1.00000000
END perioddata

