# Name file for MODPATH-RW, generated by Flopy version 3.4.0.
MPBAS      ex05b_mf6.mpbas
GRBDIS     ex05_mf6.dis.grb
TDIS       ex05_mf6.tdis
HEAD       ex05_mf6.hds
BUDGET     ex05_mf6.bud
DSP        ex05b_mf6.dsp
RWOPTS     ex05b_mf6.rwopts
SPC        ex05b_mf6.spc
SRC        ex05b_mf6.src
OBS        ex05b_mf6.obs
