# File generated by Flopy version 3.4.0 on 06/30/2023 at 13:07:00.
BEGIN griddata
  strt
    CONSTANT     250.00000000
END griddata

