# File generated by Flopy version 3.4.0 on 06/29/2023 at 11:42:58.
BEGIN options
  BUDGET  FILEOUT  ex05_mf6.bud
  HEAD  FILEOUT  ex05_mf6.hds
  HEAD  PRINT_FORMAT  COLUMNS  10  WIDTH  15  DIGITS  6  GENERAL
END options

BEGIN period  1
  SAVE  HEAD  ALL
  SAVE  BUDGET  ALL
  PRINT  HEAD  ALL
  PRINT  BUDGET  ALL
END period  1

