# File generated by Flopy version 3.4.0 on 06/30/2023 at 13:07:00.
BEGIN options
END options

BEGIN timing
  TDIS6  ex05_mf6.tdis
END timing

BEGIN models
  gwf6  ex05_mf6.nam  ex05_mf6
END models

BEGIN exchanges
END exchanges

BEGIN solutiongroup  1
  ims6  ex05_mf6.ims  ex05_mf6
END solutiongroup  1

